resultados/CN12/CN12_EXP_VOLTAGES.CSV
Bus, BasekV, Node1, Magnitude1, Angle1, pu1, Node2, Magnitude2, Angle2, pu2, Node3, Magnitude3, Angle3, pu3
"CN_ALCN-12", 13.8, 1,    7964.97,    0.0,   0.99969, 2,    7964.97, -120.0,   0.99969, 3,    7964.97,  120.0,   0.99969
"SCN_CN12_9032_CEI033", 13.8, 1,    7895.42,   -0.3,   0.99096, 2,    7895.41, -120.3,   0.99096, 3,    7895.41,  119.7,   0.99096
"SCN_CN12_9033_CEI033", 13.8, 1,    7894.93,   -0.3,    0.9909, 2,    7894.92, -120.3,    0.9909, 3,    7894.93,  119.7,    0.9909
"SCN_CN12_9031_CEI033", 13.8, 1,    7896.03,   -0.3,   0.99104, 2,    7896.03, -120.3,   0.99104, 3,    7896.03,  119.7,   0.99104
"SCN_CN12_CEI_FL_MT_1272", 13.8, 1,    7894.82,   -0.3,   0.99089, 2,    7894.81, -120.3,   0.99089, 3,    7894.82,  119.7,   0.99089
"SCN_CN12_9112_CEI033", 13.8, 1,     7894.8,   -0.3,   0.99088, 2,     7894.8, -120.3,   0.99088, 3,     7894.8,  119.7,   0.99088
"SCN_CN12_9111_CEI033", 13.8, 1,    7894.73,   -0.3,   0.99088, 2,    7894.73, -120.3,   0.99087, 3,    7894.73,  119.7,   0.99087
"SCN_CN12_9110_CEI033", 13.8, 1,    7894.68,   -0.3,   0.99087, 2,    7894.68, -120.3,   0.99087, 3,    7894.68,  119.7,   0.99087
"SCN_CN12_9109_CEI033", 13.8, 1,    7894.63,   -0.3,   0.99086, 2,    7894.62, -120.3,   0.99086, 3,    7894.63,  119.7,   0.99086
"SCN_CN12_9108_CEI033_S", 13.8, 1,    7894.59,   -0.3,   0.99086, 2,    7894.59, -120.3,   0.99086, 3,    7894.59,  119.7,   0.99086
"SCN_CN12_9107_CEI033", 13.8, 1,    7894.55,   -0.3,   0.99085, 2,    7894.55, -120.3,   0.99085, 3,    7894.55,  119.7,   0.99085
"SCN_CN12_9106_CEI033", 13.8, 1,    7894.49,   -0.3,   0.99084, 2,    7894.48, -120.3,   0.99084, 3,    7894.48,  119.7,   0.99084
"SCN_CN12_9105_CEI033", 13.8, 1,    7894.43,   -0.3,   0.99084, 2,    7894.43, -120.3,   0.99084, 3,    7894.43,  119.7,   0.99084
"SCN_CN12_9104_CEI033", 13.8, 1,    7894.38,   -0.3,   0.99083, 2,    7894.37, -120.3,   0.99083, 3,    7894.38,  119.7,   0.99083
"SCN_CN12_9103_CEI033", 13.8, 1,    7894.33,   -0.3,   0.99082, 2,    7894.32, -120.3,   0.99082, 3,    7894.32,  119.7,   0.99082
"SCN_CN12_9102_CEI033", 13.8, 1,    7894.27,   -0.3,   0.99082, 2,    7894.26, -120.3,   0.99082, 3,    7894.26,  119.7,   0.99082
"SCN_CN12_9101_CEI033", 13.8, 1,    7894.21,   -0.3,   0.99081, 2,    7894.21, -120.3,   0.99081, 3,    7894.21,  119.7,   0.99081
"SCN_CN12_9100_CEI033", 13.8, 1,    7894.16,   -0.3,    0.9908, 2,    7894.16, -120.3,    0.9908, 3,    7894.16,  119.7,    0.9908
"SCN_CN12_9099_CEI033", 13.8, 1,    7894.11,   -0.3,    0.9908, 2,    7894.11, -120.3,    0.9908, 3,    7894.11,  119.7,    0.9908
"SCN_CN12_9098_CEI033", 13.8, 1,    7894.06,   -0.3,   0.99079, 2,    7894.06, -120.3,   0.99079, 3,    7894.06,  119.7,   0.99079
"SCN_CN12_9097_CEI033", 13.8, 1,       7894,   -0.3,   0.99078, 2,    7893.99, -120.3,   0.99078, 3,    7893.99,  119.7,   0.99078
"SCN_CN12_9096_CEI033", 13.8, 1,    7893.94,   -0.3,   0.99078, 2,    7893.93, -120.3,   0.99077, 3,    7893.93,  119.7,   0.99077
"SCN_CN12_9095_CEI033", 13.8, 1,    7893.89,   -0.3,   0.99077, 2,    7893.89, -120.3,   0.99077, 3,    7893.89,  119.7,   0.99077
"SCN_CN12_9093_CEI033", 13.8, 1,    7893.84,   -0.3,   0.99076, 2,    7893.84, -120.3,   0.99076, 3,    7893.84,  119.7,   0.99076
"SCN_CN12_9094_CEI033", 13.8, 1,     7893.8,   -0.3,   0.99076, 2,     7893.8, -120.3,   0.99076, 3,     7893.8,  119.7,   0.99076
"SCN_CN12_9035_CEI079", 13.8, 1,    7893.72,   -0.3,   0.99075, 2,    7893.72, -120.3,   0.99075, 3,    7893.72,  119.7,   0.99075
"SCN_CN12_9036_CEI079", 13.8, 1,    7893.65,   -0.3,   0.99074, 2,    7893.64, -120.3,   0.99074, 3,    7893.64,  119.7,   0.99074
"SCN_CN12_9037_CEI079", 13.8, 1,    7893.61,   -0.3,   0.99073, 2,     7893.6, -120.3,   0.99073, 3,     7893.6,  119.7,   0.99073
"SCN_CN12_9046_CEI079", 13.8, 1,    7893.56,   -0.3,   0.99073, 2,    7893.56, -120.3,   0.99073, 3,    7893.56,  119.7,   0.99073
"SCN_CN12_9047_CEI079", 13.8, 1,    7893.52,   -0.3,   0.99072, 2,    7893.51, -120.3,   0.99072, 3,    7893.51,  119.7,   0.99072
"SCN_CN12_9048_CEI079", 13.8, 1,    7893.47,   -0.3,   0.99072, 2,    7893.46, -120.3,   0.99072, 3,    7893.47,  119.7,   0.99072
"SCN_CN12_9175_CEIRJ001_ATV_S", 13.8, 1,    7893.37,   -0.3,    0.9907, 2,    7893.36, -120.3,    0.9907, 3,    7893.36,  119.7,    0.9907
"SCN_CN12_9175_CEIRJ001_ATV", 13.8, 1,    7893.37,   -0.3,    0.9907, 2,    7893.36, -120.3,    0.9907, 3,    7893.36,  119.7,    0.9907
"SCN_CN12_9060_CEI079", 13.8, 1,    7893.35,   -0.3,    0.9907, 2,    7893.35, -120.3,    0.9907, 3,    7893.35,  119.7,    0.9907
"SCN_CN12_9054_CEI079", 13.8, 1,    7893.34,   -0.3,    0.9907, 2,    7893.33, -120.3,    0.9907, 3,    7893.33,  119.7,    0.9907
"SCN_CN12_9055_CEI079", 13.8, 1,    7893.32,   -0.3,    0.9907, 2,    7893.32, -120.3,    0.9907, 3,    7893.32,  119.7,    0.9907
"SCN_CN12_9059_CEI079", 13.8, 1,    7893.31,   -0.3,    0.9907, 2,     7893.3, -120.3,    0.9907, 3,     7893.3,  119.7,    0.9907
"SCN_CN12_9001_CEI85A", 13.8, 1,    7893.28,   -0.3,   0.99069, 2,    7893.28, -120.3,   0.99069, 3,    7893.28,  119.7,   0.99069
"SCN_CN12_9002_CEI85A", 13.8, 1,    7893.26,   -0.3,   0.99069, 2,    7893.26, -120.3,   0.99069, 3,    7893.26,  119.7,   0.99069
"SCN_CN12_9003_CEI85A", 13.8, 1,    7893.25,   -0.3,   0.99069, 2,    7893.24, -120.3,   0.99069, 3,    7893.24,  119.7,   0.99069
"SCN_CN12_9004_CEI85A", 13.8, 1,    7893.23,   -0.3,   0.99069, 2,    7893.22, -120.3,   0.99069, 3,    7893.22,  119.7,   0.99069
"SCN_CN12_9005_CEI85A", 13.8, 1,    7893.21,   -0.3,   0.99068, 2,     7893.2, -120.3,   0.99068, 3,     7893.2,  119.7,   0.99068
"SCN_CN12_9006_CEI85A", 13.8, 1,    7893.19,   -0.3,   0.99068, 2,    7893.18, -120.3,   0.99068, 3,    7893.18,  119.7,   0.99068
"SCN_CN12_9013_CEI85A", 13.8, 1,    7893.17,   -0.3,   0.99068, 2,    7893.17, -120.3,   0.99068, 3,    7893.17,  119.7,   0.99068
"SCN_CN12_9014_CEI85A", 13.8, 1,    7893.16,   -0.3,   0.99068, 2,    7893.16, -120.3,   0.99068, 3,    7893.16,  119.7,   0.99068
"SCN_CN12_9021_CEI85A", 13.8, 1,    7893.16,   -0.3,   0.99068, 2,    7893.15, -120.3,   0.99068, 3,    7893.16,  119.7,   0.99068
"SCN_CN12_9068_CEI280_ATV", 13.8, 1,    7893.16,   -0.3,   0.99068, 2,    7893.15, -120.3,   0.99068, 3,    7893.16,  119.7,   0.99068
"SCN_CN12_9022_CEI85A", 13.8, 1,    7893.15,   -0.3,   0.99068, 2,    7893.15, -120.3,   0.99068, 3,    7893.15,  119.7,   0.99068
"SCN_CN12_9023_CEI85A", 13.8, 1,    7893.14,   -0.3,   0.99068, 2,    7893.14, -120.3,   0.99068, 3,    7893.14,  119.7,   0.99068
"SCN_CN12_9024_CEI85A", 13.8, 1,    7893.14,   -0.3,   0.99068, 2,    7893.13, -120.3,   0.99067, 3,    7893.13,  119.7,   0.99067
"SCN_CN12_9025_CEI85A", 13.8, 1,    7893.13,   -0.3,   0.99067, 2,    7893.12, -120.3,   0.99067, 3,    7893.13,  119.7,   0.99067
"SCN_CN12_9026_CEI85A", 13.8, 1,    7893.12,   -0.3,   0.99067, 2,    7893.12, -120.3,   0.99067, 3,    7893.12,  119.7,   0.99067
"SCN_CN12_9027_CEI85A", 13.8, 1,    7893.12,   -0.3,   0.99067, 2,    7893.11, -120.3,   0.99067, 3,    7893.11,  119.7,   0.99067
"SCN_CN12_9001_CEI085", 13.8, 1,    7893.11,   -0.3,   0.99067, 2,    7893.11, -120.3,   0.99067, 3,    7893.11,  119.7,   0.99067
"SCN_CN12_9002_CEI085", 13.8, 1,    7893.11,   -0.3,   0.99067, 2,    7893.11, -120.3,   0.99067, 3,    7893.11,  119.7,   0.99067
"SCN_CN12_9003_CEI085", 13.8, 1,    7893.11,   -0.3,   0.99067, 2,     7893.1, -120.3,   0.99067, 3,    7893.11,  119.7,   0.99067
"SCN_CN12_9004_CEI085", 13.8, 1,    7893.11,   -0.3,   0.99067, 2,     7893.1, -120.3,   0.99067, 3,     7893.1,  119.7,   0.99067
"SCN_CN12_9009_CEI085", 13.8, 1,     7893.1,   -0.3,   0.99067, 2,     7893.1, -120.3,   0.99067, 3,     7893.1,  119.7,   0.99067
"SCN_CN12_9028_CEI85A", 13.8, 1,    7893.11,   -0.3,   0.99067, 2,    7893.11, -120.3,   0.99067, 3,    7893.11,  119.7,   0.99067
"SCN_CN12_9029_CEI85A", 13.8, 1,    7893.11,   -0.3,   0.99067, 2,     7893.1, -120.3,   0.99067, 3,     7893.1,  119.7,   0.99067
"SCN_CN12_9030_CEI85A", 13.8, 1,     7893.1,   -0.3,   0.99067, 2,     7893.1, -120.3,   0.99067, 3,     7893.1,  119.7,   0.99067
"SCN_CN12_9031_CEI85A", 13.8, 1,     7893.1,   -0.3,   0.99067, 2,    7893.09, -120.3,   0.99067, 3,    7893.09,  119.7,   0.99067
"SCN_CN12_9032_CEI85A", 13.8, 1,    7893.09,   -0.3,   0.99067, 2,    7893.09, -120.3,   0.99067, 3,    7893.09,  119.7,   0.99067
"SCN_CN12_9033_CEI85A", 13.8, 1,    7893.09,   -0.3,   0.99067, 2,    7893.08, -120.3,   0.99067, 3,    7893.09,  119.7,   0.99067
"SCN_CN12_9034_CEI85A", 13.8, 1,    7893.09,   -0.3,   0.99067, 2,    7893.08, -120.3,   0.99067, 3,    7893.08,  119.7,   0.99067
"SCN_CN12_9074_CEI079", 13.8, 1,    7893.34,   -0.3,    0.9907, 2,    7893.34, -120.3,    0.9907, 3,    7893.34,  119.7,    0.9907
"SCN_CN12_9075_CEI079", 13.8, 1,    7893.34,   -0.3,    0.9907, 2,    7893.33, -120.3,    0.9907, 3,    7893.33,  119.7,    0.9907
"SCN_CN12_9076_CEI079", 13.8, 1,    7893.33,   -0.3,    0.9907, 2,    7893.32, -120.3,    0.9907, 3,    7893.32,  119.7,    0.9907
"SCN_CN12_9093_CEI079", 13.8, 1,    7893.32,   -0.3,    0.9907, 2,    7893.31, -120.3,    0.9907, 3,    7893.31,  119.7,    0.9907
"SCN_CN12_9094_CEI079", 13.8, 1,    7893.31,   -0.3,    0.9907, 2,     7893.3, -120.3,    0.9907, 3,    7893.31,  119.7,    0.9907
"SCN_CN12_9095_CEI079", 13.8, 1,    7893.31,   -0.3,    0.9907, 2,     7893.3, -120.3,    0.9907, 3,     7893.3,  119.7,    0.9907
"SCN_CN12_9096_CEI079", 13.8, 1,     7893.3,   -0.3,    0.9907, 2,    7893.29, -120.3,   0.99069, 3,     7893.3,  119.7,    0.9907
"SCN_CN12_9001_CEI79A", 13.8, 1,     7893.3,   -0.3,   0.99069, 2,    7893.29, -120.3,   0.99069, 3,    7893.29,  119.7,   0.99069
"SCN_CN12_9002_CEI79A", 13.8, 1,    7893.29,   -0.3,   0.99069, 2,    7893.29, -120.3,   0.99069, 3,    7893.29,  119.7,   0.99069
"SCN_CN12_9003_CEI79A", 13.8, 1,    7893.29,   -0.3,   0.99069, 2,    7893.28, -120.3,   0.99069, 3,    7893.28,  119.7,   0.99069
"SCN_CN12_9004_CEI79A", 13.8, 1,    7893.28,   -0.3,   0.99069, 2,    7893.27, -120.3,   0.99069, 3,    7893.28,  119.7,   0.99069
"SCN_CN12_9006_CEI79A", 13.8, 1,    7893.27,   -0.3,   0.99069, 2,    7893.27, -120.3,   0.99069, 3,    7893.27,  119.7,   0.99069
"SCN_CN12_9007_CEI79A", 13.8, 1,    7893.27,   -0.3,   0.99069, 2,    7893.27, -120.3,   0.99069, 3,    7893.27,  119.7,   0.99069
"SCN_CN12_9017_CEI79A", 13.8, 1,    7893.27,   -0.3,   0.99069, 2,    7893.26, -120.3,   0.99069, 3,    7893.27,  119.7,   0.99069
"SCN_CN12_9053_CEI079", 13.8, 1,    7893.31,   -0.3,    0.9907, 2,     7893.3, -120.3,    0.9907, 3,     7893.3,  119.7,    0.9907
"SCN_CN12_9052_CEI079", 13.8, 1,    7893.29,   -0.3,   0.99069, 2,    7893.28, -120.3,   0.99069, 3,    7893.28,  119.7,   0.99069
"SCN_CN12_9001_CEI079", 13.8, 1,    7893.25,   -0.3,   0.99069, 2,    7893.25, -120.3,   0.99069, 3,    7893.25,  119.7,   0.99069
"SCN_CN12_9002_CEI079", 13.8, 1,    7893.23,   -0.3,   0.99069, 2,    7893.22, -120.3,   0.99069, 3,    7893.23,  119.7,   0.99069
"SCN_CN12_9003_CEI079", 13.8, 1,    7893.22,   -0.3,   0.99069, 2,    7893.21, -120.3,   0.99068, 3,    7893.22,  119.7,   0.99068
"SCN_CN12_9174_CEIRJ001_ATV", 13.8, 1,    7893.21,   -0.3,   0.99068, 2,    7893.21, -120.3,   0.99068, 3,    7893.21,  119.7,   0.99068
"SCN_CN12_9004_CEI079", 13.8, 1,     7893.2,   -0.3,   0.99068, 2,     7893.2, -120.3,   0.99068, 3,     7893.2,  119.7,   0.99068
"SCN_CN12_9008_CEI079", 13.8, 1,    7893.18,   -0.3,   0.99068, 2,    7893.17, -120.3,   0.99068, 3,    7893.17,  119.7,   0.99068
"SCN_CN12_9020_CEI079", 13.8, 1,    7893.15,   -0.3,   0.99068, 2,    7893.15, -120.3,   0.99068, 3,    7893.15,  119.7,   0.99068
"SCN_CN12_9026_CEI079", 13.8, 1,    7893.13,   -0.3,   0.99067, 2,    7893.12, -120.3,   0.99067, 3,    7893.13,  119.7,   0.99067
"SCN_CN12_9027_CEI079", 13.8, 1,     7893.1,   -0.3,   0.99067, 2,     7893.1, -120.3,   0.99067, 3,     7893.1,  119.7,   0.99067
"SCN_CN12_9030_CEI079", 13.8, 1,    7893.08,   -0.3,   0.99067, 2,    7893.08, -120.3,   0.99067, 3,    7893.08,  119.7,   0.99067
"SCN_CN12_9165_CEIRJ001_ATV", 13.8, 1,    7893.06,   -0.3,   0.99067, 2,    7893.06, -120.3,   0.99066, 3,    7893.06,  119.7,   0.99067
"SCN_CN12_CEI_FL_MT_1275", 13.8, 1,    7893.51,   -0.3,   0.99072, 2,     7893.5, -120.3,   0.99072, 3,     7893.5,  119.7,   0.99072
"SCN_CN12_9039_CEI033", 13.8, 1,    7893.51,   -0.3,   0.99072, 2,     7893.5, -120.3,   0.99072, 3,     7893.5,  119.7,   0.99072
"SCN_CN12_9086_CEIRJ001_ATV", 13.8, 1,    7893.39,   -0.3,   0.99071, 2,    7893.39, -120.3,   0.99071, 3,    7893.39,  119.7,   0.99071
"SCN_CN12_9036_CEI033", 13.8, 1,    7893.35,   -0.3,    0.9907, 2,    7893.35, -120.3,    0.9907, 3,    7893.35,  119.7,    0.9907
"SCN_CN12_9038_CEI033", 13.8, 1,    7893.51,   -0.3,   0.99072, 2,     7893.5, -120.3,   0.99072, 3,     7893.5,  119.7,   0.99072
"SCN_CN12_9035_CEI033", 13.8, 1,    7893.92,   -0.3,   0.99077, 2,    7893.92, -120.3,   0.99077, 3,    7893.92,  119.7,   0.99077
"SCN_CN12_9113_CEI033", 13.8, 1,    7894.82,   -0.3,   0.99089, 2,    7894.81, -120.3,   0.99089, 3,    7894.82,  119.7,   0.99089
"SCN_CN12_9034_CEI033", 13.8, 1,     7894.4,   -0.3,   0.99083, 2,    7894.39, -120.3,   0.99083, 3,     7894.4,  119.7,   0.99083
"SCN_CN12_9016_CEI099", 13.8, 1,    7879.67,   -0.4,   0.98898, 2,    7879.66, -120.4,   0.98898, 3,    7879.66,  119.6,   0.98898
"SCN_CN12_9015_CEI099", 13.8, 1,    7879.63,   -0.4,   0.98898, 2,    7879.63, -120.4,   0.98898, 3,    7879.63,  119.6,   0.98898
"SCN_CN12_9068_CEI095", 13.8, 1,    7884.82,   -0.3,   0.98963, 2,    7884.81, -120.3,   0.98963, 3,    7884.81,  119.7,   0.98963
"SCN_CN12_9069_CEI095", 13.8, 1,    7884.81,   -0.3,   0.98963, 2,    7884.81, -120.3,   0.98963, 3,    7884.81,  119.7,   0.98963
"SCN_CN12_9077_CEI095", 13.8, 1,    7884.81,   -0.3,   0.98963, 2,     7884.8, -120.3,   0.98963, 3,     7884.8,  119.7,   0.98963
"SCN_CN12_9078_CEI095", 13.8, 1,    7884.81,   -0.3,   0.98963, 2,     7884.8, -120.3,   0.98963, 3,     7884.8,  119.7,   0.98963
"SCN_CN12_9079_CEI095", 13.8, 1,    7884.81,   -0.3,   0.98963, 2,     7884.8, -120.3,   0.98963, 3,     7884.8,  119.7,   0.98963
"SCN_CN12_9081_CEI095", 13.8, 1,     7884.8,   -0.3,   0.98963, 2,    7884.79, -120.3,   0.98963, 3,     7884.8,  119.7,   0.98963
"SCN_CN12_9080_CEI095", 13.8, 1,     7884.8,   -0.3,   0.98963, 2,     7884.8, -120.3,   0.98963, 3,     7884.8,  119.7,   0.98963
"SCN_CN12_9049_CEI099", 13.8, 1,     7879.8,   -0.4,     0.989, 2,    7879.79, -120.4,     0.989, 3,    7879.79,  119.6,     0.989
"SCN_CN12_9050_CEI099", 13.8, 1,     7879.8,   -0.4,     0.989, 2,    7879.79, -120.4,     0.989, 3,     7879.8,  119.6,     0.989
"SCN_CN12_9048_CEI099", 13.8, 1,    7879.79,   -0.4,     0.989, 2,    7879.79, -120.4,     0.989, 3,    7879.79,  119.6,     0.989
"SCN_CN12_9047_CEI103A", 13.8, 1,    7879.27,   -0.4,   0.98893, 2,    7879.26, -120.4,   0.98893, 3,    7879.27,  119.6,   0.98893
"SCN_CN12_9048_CEI103A", 13.8, 1,    7879.26,   -0.4,   0.98893, 2,    7879.26, -120.4,   0.98893, 3,    7879.26,  119.6,   0.98893
"SCN_CN12_9035_CEI103A", 13.8, 1,    7879.27,   -0.4,   0.98893, 2,    7879.27, -120.4,   0.98893, 3,    7879.27,  119.6,   0.98893
"SCN_CN12_9036_CEI103A", 13.8, 1,    7879.28,   -0.4,   0.98894, 2,    7879.27, -120.4,   0.98893, 3,    7879.28,  119.6,   0.98894
"SCN_CN12_9024_CEI103A", 13.8, 1,    7879.29,   -0.4,   0.98894, 2,    7879.28, -120.4,   0.98894, 3,    7879.28,  119.6,   0.98894
"SCN_CN12_9023_CEI103A", 13.8, 1,    7879.29,   -0.4,   0.98894, 2,    7879.29, -120.4,   0.98894, 3,    7879.29,  119.6,   0.98894
"SCN_CN12_9012_CEI100", 13.8, 1,    7881.97,   -0.4,   0.98927, 2,    7881.96, -120.4,   0.98927, 3,    7881.96,  119.6,   0.98927
"SCN_CN12_9065_CEI100", 13.8, 1,    7881.96,   -0.4,   0.98927, 2,    7881.95, -120.4,   0.98927, 3,    7881.95,  119.6,   0.98927
"SCN_CN12_9059_CEI096", 13.8, 1,    7881.95,   -0.4,   0.98927, 2,    7881.94, -120.4,   0.98927, 3,    7881.95,  119.6,   0.98927
"SCN_CN12_9060_CEI096", 13.8, 1,    7881.94,   -0.4,   0.98927, 2,    7881.93, -120.4,   0.98927, 3,    7881.94,  119.6,   0.98927
"SCN_CN12_9061_CEI096", 13.8, 1,    7881.93,   -0.4,   0.98927, 2,    7881.92, -120.4,   0.98927, 3,    7881.93,  119.6,   0.98927
"SCN_CN12_9062_CEI096", 13.8, 1,    7881.93,   -0.4,   0.98927, 2,    7881.92, -120.4,   0.98927, 3,    7881.92,  119.6,   0.98927
"SCN_CN12_9063_CEI096", 13.8, 1,    7881.92,   -0.4,   0.98927, 2,    7881.91, -120.4,   0.98927, 3,    7881.92,  119.6,   0.98927
"SCN_CN12_9064_CEI096", 13.8, 1,    7881.92,   -0.4,   0.98927, 2,    7881.91, -120.4,   0.98927, 3,    7881.91,  119.6,   0.98927
"SCN_CN12_9028_CEI096", 13.8, 1,    7881.67,   -0.4,   0.98924, 2,    7881.66, -120.4,   0.98924, 3,    7881.67,  119.6,   0.98924
"SCN_CN12_9124_CEI96A", 13.8, 1,    7881.67,   -0.4,   0.98924, 2,    7881.66, -120.4,   0.98923, 3,    7881.67,  119.6,   0.98924
"SCN_CN12_9123_CEI96A", 13.8, 1,    7881.67,   -0.4,   0.98924, 2,    7881.66, -120.4,   0.98923, 3,    7881.66,  119.6,   0.98923
"SCN_CN12_9122_CEI96A", 13.8, 1,    7881.66,   -0.4,   0.98923, 2,    7881.66, -120.4,   0.98923, 3,    7881.66,  119.6,   0.98923
"SCN_CN12_9121_CEI96A", 13.8, 1,    7881.66,   -0.4,   0.98923, 2,    7881.65, -120.4,   0.98923, 3,    7881.65,  119.6,   0.98923
"SCN_CN12_9120_CEI96A", 13.8, 1,    7881.65,   -0.4,   0.98923, 2,    7881.65, -120.4,   0.98923, 3,    7881.65,  119.6,   0.98923
"SCN_CN12_9065_CEI096", 13.8, 1,    7881.91,   -0.4,   0.98927, 2,    7881.91, -120.4,   0.98927, 3,    7881.91,  119.6,   0.98927
"SCN_CN12_9099_CEI96A", 13.8, 1,    7881.91,   -0.4,   0.98927, 2,    7881.91, -120.4,   0.98927, 3,    7881.91,  119.6,   0.98927
"SCN_CN12_9100_CEI96A", 13.8, 1,    7881.91,   -0.4,   0.98927, 2,    7881.91, -120.4,   0.98927, 3,    7881.91,  119.6,   0.98927
"SCN_CN12_9098_CEI96A", 13.8, 1,    7881.91,   -0.4,   0.98927, 2,    7881.91, -120.4,   0.98927, 3,    7881.91,  119.6,   0.98927
"SCN_CN12_9097_CEI96A", 13.8, 1,    7881.91,   -0.4,   0.98927, 2,    7881.91, -120.4,   0.98927, 3,    7881.91,  119.6,   0.98927
"SCN_CN12_9096_CEI96A", 13.8, 1,    7881.91,   -0.4,   0.98927, 2,    7881.91, -120.4,   0.98927, 3,    7881.91,  119.6,   0.98927
"SCN_CN12_9066_CEI096", 13.8, 1,    7881.91,   -0.4,   0.98927, 2,     7881.9, -120.4,   0.98926, 3,    7881.91,  119.6,   0.98927
"SCN_CN12_9067_CEI096", 13.8, 1,    7881.91,   -0.4,   0.98927, 2,     7881.9, -120.4,   0.98926, 3,     7881.9,  119.6,   0.98926
"SCN_CN12_9078_CEI96A", 13.8, 1,    7881.91,   -0.4,   0.98927, 2,     7881.9, -120.4,   0.98926, 3,    7881.91,  119.6,   0.98927
"SCN_CN12_9079_CEI96A", 13.8, 1,    7881.91,   -0.4,   0.98927, 2,     7881.9, -120.4,   0.98926, 3,    7881.91,  119.6,   0.98927
"SCN_CN12_9077_CEI96A", 13.8, 1,    7881.91,   -0.4,   0.98927, 2,     7881.9, -120.4,   0.98926, 3,    7881.91,  119.6,   0.98927
"SCN_CN12_9076_CEI96A", 13.8, 1,    7881.91,   -0.4,   0.98927, 2,     7881.9, -120.4,   0.98926, 3,    7881.91,  119.6,   0.98927
"SCN_CN12_9075_CEI96A", 13.8, 1,    7881.91,   -0.4,   0.98927, 2,     7881.9, -120.4,   0.98926, 3,    7881.91,  119.6,   0.98927
"SCN_CN12_9068_CEI096", 13.8, 1,    7881.91,   -0.4,   0.98927, 2,     7881.9, -120.4,   0.98926, 3,     7881.9,  119.6,   0.98926
"SCN_CN12_9069_CEI096", 13.8, 1,    7881.91,   -0.4,   0.98927, 2,     7881.9, -120.4,   0.98926, 3,     7881.9,  119.6,   0.98926
"SCN_CN12_9036_CEI096", 13.8, 1,    7881.52,   -0.4,   0.98922, 2,    7881.51, -120.4,   0.98922, 3,    7881.51,  119.6,   0.98922
"SCN_CN12_9064_CEI96A", 13.8, 1,    7881.52,   -0.4,   0.98922, 2,    7881.51, -120.4,   0.98922, 3,    7881.51,  119.6,   0.98922
"SCN_CN12_9063_CEI96A", 13.8, 1,    7881.52,   -0.4,   0.98922, 2,    7881.51, -120.4,   0.98922, 3,    7881.51,  119.6,   0.98922
"SCN_CN12_9062_CEI96A", 13.8, 1,    7881.52,   -0.4,   0.98922, 2,    7881.51, -120.4,   0.98922, 3,    7881.51,  119.6,   0.98922
"SCN_CN12_9061_CEI96A", 13.8, 1,    7881.52,   -0.4,   0.98922, 2,    7881.51, -120.4,   0.98922, 3,    7881.51,  119.6,   0.98922
"SCN_CN12_9060_CEI96A", 13.8, 1,    7881.52,   -0.4,   0.98922, 2,    7881.51, -120.4,   0.98922, 3,    7881.51,  119.6,   0.98922
"SCN_CN12_9070_CEI096", 13.8, 1,    7881.91,   -0.4,   0.98927, 2,     7881.9, -120.4,   0.98926, 3,     7881.9,  119.6,   0.98926
"SCN_CN12_9108_CEI096", 13.8, 1,    7881.91,   -0.4,   0.98927, 2,     7881.9, -120.4,   0.98926, 3,     7881.9,  119.6,   0.98926
"SCN_CN12_9109_CEI096", 13.8, 1,    7881.91,   -0.4,   0.98927, 2,     7881.9, -120.4,   0.98926, 3,     7881.9,  119.6,   0.98926
"SCN_CN12_9107_CEI096", 13.8, 1,    7881.91,   -0.4,   0.98927, 2,     7881.9, -120.4,   0.98926, 3,     7881.9,  119.6,   0.98926
"SCN_CN12_9106_CEI096", 13.8, 1,    7881.91,   -0.4,   0.98927, 2,     7881.9, -120.4,   0.98926, 3,     7881.9,  119.6,   0.98926
"SCN_CN12_9105_CEI096", 13.8, 1,    7881.91,   -0.4,   0.98927, 2,     7881.9, -120.4,   0.98926, 3,     7881.9,  119.6,   0.98926
"SCN_CN12_9096_CEI092", 13.8, 1,    7884.43,   -0.3,   0.98958, 2,    7884.42, -120.3,   0.98958, 3,    7884.43,  119.7,   0.98958
"SCN_CN12_9107_CEI092", 13.8, 1,    7884.43,   -0.3,   0.98958, 2,    7884.42, -120.3,   0.98958, 3,    7884.43,  119.7,   0.98958
"SCN_CN12_9024_CEI084", 13.8, 1,     7892.9,   -0.3,   0.99064, 2,    7892.89, -120.3,   0.99064, 3,    7892.89,  119.7,   0.99064
"SCN_CN12_9030_CEI84A", 13.8, 1,    7892.91,   -0.3,   0.99065, 2,     7892.9, -120.3,   0.99065, 3,     7892.9,  119.7,   0.99065
"SCN_CN12_9034_CEI84A", 13.8, 1,    7892.92,   -0.3,   0.99065, 2,    7892.91, -120.3,   0.99065, 3,    7892.91,  119.7,   0.99065
"SCN_CN12_9040_CEI84A", 13.8, 1,    7892.93,   -0.3,   0.99065, 2,    7892.92, -120.3,   0.99065, 3,    7892.92,  119.7,   0.99065
"SCN_CN12_9047_CEI84A", 13.8, 1,    7892.94,   -0.3,   0.99065, 2,    7892.94, -120.3,   0.99065, 3,    7892.94,  119.7,   0.99065
"SCN_CN12_9055_CEI84A", 13.8, 1,    7892.95,   -0.3,   0.99065, 2,    7892.95, -120.3,   0.99065, 3,    7892.95,  119.7,   0.99065
"SCN_CN12_9056_CEI084", 13.8, 1,    7892.96,   -0.3,   0.99065, 2,    7892.95, -120.3,   0.99065, 3,    7892.96,  119.7,   0.99065
"SCN_CN12_9168_CEIRJ001_ATV", 13.8, 1,    7893.03,   -0.3,   0.99066, 2,    7893.03, -120.3,   0.99066, 3,    7893.03,  119.7,   0.99066
"SCN_CN12_9167_CEIRJ001_ATV", 13.8, 1,    7893.03,   -0.3,   0.99066, 2,    7893.02, -120.3,   0.99066, 3,    7893.02,  119.7,   0.99066
"SCN_CN12_9166_CEIRJ001_ATV", 13.8, 1,    7893.02,   -0.3,   0.99066, 2,    7893.02, -120.3,   0.99066, 3,    7893.02,  119.7,   0.99066
"SCN_CN12_9169_CEIRJ001_ATV", 13.8, 1,    7893.01,   -0.3,   0.99066, 2,       7893, -120.3,   0.99066, 3,    7893.01,  119.7,   0.99066
"SCN_CN12_9170_CEIRJ001_ATV", 13.8, 1,       7893,   -0.3,   0.99066, 2,    7892.99, -120.3,   0.99066, 3,    7892.99,  119.7,   0.99066
"SCN_CN12_9171_CEIRJ001_ATV", 13.8, 1,    7892.99,   -0.3,   0.99066, 2,    7892.98, -120.3,   0.99066, 3,    7892.98,  119.7,   0.99066
"SCN_CN12_9172_CEIRJ001_ATV", 13.8, 1,    7892.98,   -0.3,   0.99066, 2,    7892.97, -120.3,   0.99065, 3,    7892.98,  119.7,   0.99065
"SCN_CN12_9173_CEIRJ001_ATV", 13.8, 1,    7892.97,   -0.3,   0.99065, 2,    7892.96, -120.3,   0.99065, 3,    7892.97,  119.7,   0.99065
"SCN_CN12_9162_CEI094", 13.8, 1,    7880.41,   -0.4,   0.98908, 2,    7880.41, -120.4,   0.98908, 3,    7880.41,  119.6,   0.98908
"SCN_CN12_9163_CEI094", 13.8, 1,     7880.4,   -0.4,   0.98908, 2,    7880.39, -120.4,   0.98908, 3,    7880.39,  119.6,   0.98908
"SCN_CN12_9161_CEI094", 13.8, 1,    7880.46,   -0.4,   0.98908, 2,    7880.45, -120.4,   0.98908, 3,    7880.46,  119.6,   0.98908
"SCN_CN12_9160_CEI094", 13.8, 1,    7880.51,   -0.4,   0.98909, 2,     7880.5, -120.4,   0.98909, 3,     7880.5,  119.6,   0.98909
"SCN_CN12_9108_CEI099", 13.8, 1,    7880.38,   -0.4,   0.98907, 2,    7880.37, -120.4,   0.98907, 3,    7880.37,  119.6,   0.98907
"SCN_CN12_9107_CEI099", 13.8, 1,    7880.35,   -0.4,   0.98907, 2,    7880.34, -120.4,   0.98907, 3,    7880.35,  119.6,   0.98907
"SCN_CN12_9090_CEI099", 13.8, 1,    7880.32,   -0.4,   0.98907, 2,    7880.32, -120.4,   0.98907, 3,    7880.32,  119.6,   0.98907
"SCN_CN12_9089_CEI099", 13.8, 1,     7880.3,   -0.4,   0.98906, 2,    7880.29, -120.4,   0.98906, 3,    7880.29,  119.6,   0.98906
"SCN_CN12_9074_CEI099", 13.8, 1,    7880.27,   -0.4,   0.98906, 2,    7880.27, -120.4,   0.98906, 3,    7880.27,  119.6,   0.98906
"SCN_CN12_9023_CEIRJ008_ATV", 13.8, 1,    7880.25,   -0.4,   0.98906, 2,    7880.24, -120.4,   0.98906, 3,    7880.25,  119.6,   0.98906
"SCN_CN12_9069_CEI099", 13.8, 1,    7880.23,   -0.4,   0.98906, 2,    7880.22, -120.4,   0.98905, 3,    7880.23,  119.6,   0.98905
"SCN_CN12_9068_CEI099", 13.8, 1,    7880.21,   -0.4,   0.98905, 2,     7880.2, -120.4,   0.98905, 3,    7880.21,  119.6,   0.98905
"SCN_CN12_9063_CEI099", 13.8, 1,    7880.19,   -0.4,   0.98905, 2,    7880.18, -120.4,   0.98905, 3,    7880.19,  119.6,   0.98905
"SCN_CN12_9076_CEI098", 13.8, 1,    7880.17,   -0.4,   0.98905, 2,    7880.17, -120.4,   0.98905, 3,    7880.17,  119.6,   0.98905
"SCN_CN12_9071_CEI098", 13.8, 1,    7880.15,   -0.4,   0.98905, 2,    7880.14, -120.4,   0.98904, 3,    7880.15,  119.6,   0.98904
"SCN_CN12_9070_CEI098", 13.8, 1,    7880.14,   -0.4,   0.98904, 2,    7880.13, -120.4,   0.98904, 3,    7880.14,  119.6,   0.98904
"SCN_CN12_9060_CEI098", 13.8, 1,    7880.12,   -0.4,   0.98904, 2,    7880.11, -120.4,   0.98904, 3,    7880.11,  119.6,   0.98904
"SCN_CN12_9061_CEI098", 13.8, 1,     7880.1,   -0.4,   0.98904, 2,    7880.09, -120.4,   0.98904, 3,     7880.1,  119.6,   0.98904
"SCN_CN12_9046_CEI098", 13.8, 1,    7880.08,   -0.4,   0.98904, 2,    7880.07, -120.4,   0.98904, 3,    7880.08,  119.6,   0.98904
"SCN_CN12_9045_CEI098", 13.8, 1,    7880.07,   -0.4,   0.98903, 2,    7880.06, -120.4,   0.98903, 3,    7880.06,  119.6,   0.98903
"SCN_CN12_9035_CEI098", 13.8, 1,    7880.05,   -0.4,   0.98903, 2,    7880.04, -120.4,   0.98903, 3,    7880.05,  119.6,   0.98903
"SCN_CN12_9036_CEI098", 13.8, 1,    7880.04,   -0.4,   0.98903, 2,    7880.03, -120.4,   0.98903, 3,    7880.03,  119.6,   0.98903
"SCN_CN12_9022_CEI098", 13.8, 1,    7880.02,   -0.4,   0.98903, 2,    7880.01, -120.4,   0.98903, 3,    7880.02,  119.6,   0.98903
"SCN_CN12_9020_CEI098", 13.8, 1,    7880.01,   -0.4,   0.98903, 2,       7880, -120.4,   0.98903, 3,       7880,  119.6,   0.98903
"SCN_CN12_9011_CEI098", 13.8, 1,    7879.99,   -0.4,   0.98903, 2,    7879.99, -120.4,   0.98902, 3,    7879.99,  119.6,   0.98902
"SCN_CN12_9012_CEI098_S", 13.8, 1,    7879.98,   -0.4,   0.98902, 2,    7879.97, -120.4,   0.98902, 3,    7879.98,  119.6,   0.98902
"SCN_CN12_9001_CEI098", 13.8, 1,    7879.97,   -0.4,   0.98902, 2,    7879.96, -120.4,   0.98902, 3,    7879.97,  119.6,   0.98902
"SCN_CN12_9012_CEI098", 13.8, 1,    7879.98,   -0.4,   0.98902, 2,    7879.97, -120.4,   0.98902, 3,    7879.98,  119.6,   0.98902
"SCN_CN12_9001_CEI097", 13.8, 1,    7879.96,   -0.4,   0.98902, 2,    7879.95, -120.4,   0.98902, 3,    7879.96,  119.6,   0.98902
"SCN_CN12_9002_CEI097", 13.8, 1,    7879.95,   -0.4,   0.98902, 2,    7879.94, -120.4,   0.98902, 3,    7879.94,  119.6,   0.98902
"SCN_CN12_9003_CEI097", 13.8, 1,    7879.94,   -0.4,   0.98902, 2,    7879.93, -120.4,   0.98902, 3,    7879.94,  119.6,   0.98902
"SCN_CN12_9004_CEI097", 13.8, 1,    7879.93,   -0.4,   0.98902, 2,    7879.92, -120.4,   0.98902, 3,    7879.93,  119.6,   0.98902
"SCN_CN12_9005_CEI097", 13.8, 1,    7879.92,   -0.4,   0.98902, 2,    7879.92, -120.4,   0.98902, 3,    7879.92,  119.6,   0.98902
"SCN_CN12_9006_CEI097", 13.8, 1,    7879.92,   -0.4,   0.98902, 2,    7879.91, -120.4,   0.98901, 3,    7879.91,  119.6,   0.98901
"SCN_CN12_9007_CEI097_S", 13.8, 1,    7879.91,   -0.4,   0.98901, 2,     7879.9, -120.4,   0.98901, 3,     7879.9,  119.6,   0.98901
"SCN_CN12_9007_CEI097", 13.8, 1,    7879.91,   -0.4,   0.98901, 2,     7879.9, -120.4,   0.98901, 3,     7879.9,  119.6,   0.98901
"SCN_CN12_9008_CEI097", 13.8, 1,    7879.91,   -0.4,   0.98901, 2,     7879.9, -120.4,   0.98901, 3,     7879.9,  119.6,   0.98901
"SCN_CN12_9009_CEI097", 13.8, 1,     7879.9,   -0.4,   0.98901, 2,    7879.89, -120.4,   0.98901, 3,     7879.9,  119.6,   0.98901
"SCN_CN12_9010_CEI097", 13.8, 1,     7879.9,   -0.4,   0.98901, 2,    7879.89, -120.4,   0.98901, 3,    7879.89,  119.6,   0.98901
"SCN_CN12_9011_CEI097", 13.8, 1,     7879.9,   -0.4,   0.98901, 2,    7879.89, -120.4,   0.98901, 3,    7879.89,  119.6,   0.98901
"SCN_CN12_9012_CEI097", 13.8, 1,    7879.89,   -0.4,   0.98901, 2,    7879.89, -120.4,   0.98901, 3,    7879.89,  119.6,   0.98901
"SCN_CN12_9013_CEI097", 13.8, 1,    7879.89,   -0.4,   0.98901, 2,    7879.88, -120.4,   0.98901, 3,    7879.89,  119.6,   0.98901
"SCN_CN12_9062_CEI103", 13.8, 1,    7879.52,   -0.4,   0.98897, 2,    7879.51, -120.4,   0.98896, 3,    7879.52,  119.6,   0.98897
"SCN_CN12_9061_CEI103", 13.8, 1,    7879.52,   -0.4,   0.98897, 2,    7879.51, -120.4,   0.98896, 3,    7879.51,  119.6,   0.98896
"SCN_CN12_9013_CEI099_S", 13.8, 1,    7879.56,   -0.4,   0.98897, 2,    7879.56, -120.4,   0.98897, 3,    7879.56,  119.6,   0.98897
"SCN_CN12_9014_CEI099", 13.8, 1,     7879.6,   -0.4,   0.98898, 2,    7879.59, -120.4,   0.98897, 3,     7879.6,  119.6,   0.98898
"SCN_CN12_9005_CEI103", 13.8, 1,     7879.9,   -0.4,   0.98901, 2,    7879.89, -120.4,   0.98901, 3,    7879.89,  119.6,   0.98901
"SCN_CN12_9003_CEI103", 13.8, 1,     7879.9,   -0.4,   0.98901, 2,     7879.9, -120.4,   0.98901, 3,     7879.9,  119.6,   0.98901
"SCN_CN12_9002_CEI103", 13.8, 1,    7879.91,   -0.4,   0.98901, 2,     7879.9, -120.4,   0.98901, 3,     7879.9,  119.6,   0.98901
"SCN_CN12_9031_CEI099", 13.8, 1,    7879.91,   -0.4,   0.98902, 2,     7879.9, -120.4,   0.98901, 3,    7879.91,  119.6,   0.98901
"SCN_CN12_9093_CEI094", 13.8, 1,    7880.06,   -0.4,   0.98903, 2,    7880.05, -120.4,   0.98903, 3,    7880.05,  119.6,   0.98903
"SCN_CN12_9092_CEI094", 13.8, 1,    7880.06,   -0.4,   0.98903, 2,    7880.05, -120.4,   0.98903, 3,    7880.05,  119.6,   0.98903
"SCN_CN12_9094_CEI094", 13.8, 1,    7880.05,   -0.4,   0.98903, 2,    7880.05, -120.4,   0.98903, 3,    7880.05,  119.6,   0.98903
"SCN_CN12_9058_CEI094", 13.8, 1,    7880.04,   -0.4,   0.98903, 2,    7880.04, -120.4,   0.98903, 3,    7880.04,  119.6,   0.98903
"SCN_CN12_9356_CEI068", 13.8, 1,    7938.04,   -0.1,   0.99631, 2,    7938.04, -120.1,   0.99631, 3,    7938.04,  119.9,   0.99631
"SCN_CN12_9357_CEI068", 13.8, 1,    7938.04,   -0.1,   0.99631, 2,    7938.04, -120.1,   0.99631, 3,    7938.04,  119.9,   0.99631
"SCN_CN12_9355_CEI068", 13.8, 1,    7938.04,   -0.1,   0.99631, 2,    7938.04, -120.1,   0.99631, 3,    7938.04,  119.9,   0.99631
"SCN_CN12_9354_CEI068", 13.8, 1,    7938.04,   -0.1,   0.99631, 2,    7938.04, -120.1,   0.99631, 3,    7938.04,  119.9,   0.99631
"SCN_CN12_9297_CEI068", 13.8, 1,    7949.53,   -0.1,   0.99775, 2,    7949.53, -120.1,   0.99775, 3,    7949.53,  119.9,   0.99775
"SCN_CN12_9298_CEI068", 13.8, 1,    7950.35,   -0.1,   0.99786, 2,    7950.35, -120.1,   0.99786, 3,    7950.35,  119.9,   0.99786
"SCN_CN12_9318_CEI065", 13.8, 1,    7963.19,    0.0,   0.99947, 2,    7963.19, -120.0,   0.99947, 3,    7963.19,  120.0,   0.99947
"SCN_CN12_9319_CEI065", 13.8, 1,    7964.12,    0.0,   0.99958, 2,    7964.12, -120.0,   0.99958, 3,    7964.12,  120.0,   0.99958
"SCN_CN12_9038_CEI099", 13.8, 1,    7879.67,   -0.4,   0.98898, 2,    7879.66, -120.4,   0.98898, 3,    7879.66,  119.6,   0.98898
"SCN_CN12_9077_CEI094", 13.8, 1,       7880,   -0.4,   0.98903, 2,    7879.99, -120.4,   0.98902, 3,    7879.99,  119.6,   0.98902
"SCN_CN12_9078_CEI094", 13.8, 1,    7879.99,   -0.4,   0.98903, 2,    7879.99, -120.4,   0.98902, 3,    7879.99,  119.6,   0.98902
"SCN_CN12_9039_CEI97A", 13.8, 1,    7879.44,   -0.4,   0.98896, 2,    7879.43, -120.4,   0.98896, 3,    7879.44,  119.6,   0.98896
"SCN_CN12_9037_CEI97A", 13.8, 1,    7879.45,   -0.4,   0.98896, 2,    7879.44, -120.4,   0.98896, 3,    7879.44,  119.6,   0.98896
"SCN_CN12_9036_CEI97A", 13.8, 1,    7879.45,   -0.4,   0.98896, 2,    7879.44, -120.4,   0.98896, 3,    7879.44,  119.6,   0.98896
"SCN_CN12_9090_CEI094", 13.8, 1,       7880,   -0.4,   0.98903, 2,    7879.99, -120.4,   0.98903, 3,       7880,  119.6,   0.98903
"SCN_CN12_9091_CEI094", 13.8, 1,    7879.98,   -0.4,   0.98902, 2,    7879.98, -120.4,   0.98902, 3,    7879.98,  119.6,   0.98902
"SCN_CN12_9090_CEI094_S", 13.8, 1,       7880,   -0.4,   0.98903, 2,    7879.99, -120.4,   0.98903, 3,       7880,  119.6,   0.98903
"SCN_CN12_9089_CEI098", 13.8, 1,    7879.54,   -0.4,   0.98897, 2,    7879.53, -120.4,   0.98897, 3,    7879.53,  119.6,   0.98897
"SCN_CN12_9090_CEI098", 13.8, 1,    7879.54,   -0.4,   0.98897, 2,    7879.53, -120.4,   0.98897, 3,    7879.53,  119.6,   0.98897
"SCN_CN12_9158_CEIRJ001_ATV", 13.8, 1,     7910.4,   -0.2,   0.99284, 2,     7910.4, -120.2,   0.99284, 3,     7910.4,  119.8,   0.99284
"SCN_CN12_9159_CEIRJ001_ATV", 13.8, 1,     7910.4,   -0.2,   0.99284, 2,     7910.4, -120.2,   0.99284, 3,     7910.4,  119.8,   0.99284
"SCN_CN12_9160_CEIRJ001_ATV", 13.8, 1,     7910.4,   -0.2,   0.99284, 2,     7910.4, -120.2,   0.99284, 3,     7910.4,  119.8,   0.99284
"SCN_CN12_9161_CEIRJ001_ATV", 13.8, 1,     7910.4,   -0.2,   0.99284, 2,     7910.4, -120.2,   0.99284, 3,     7910.4,  119.8,   0.99284
"SCN_CN12_9010_CEI102", 13.8, 1,    7879.53,   -0.4,   0.98897, 2,    7879.53, -120.4,   0.98897, 3,    7879.53,  119.6,   0.98897
"SCN_CN12_9044_CEI054", 13.8, 1,    7917.96,   -0.2,   0.99379, 2,    7917.96, -120.2,   0.99379, 3,    7917.96,  119.8,   0.99379
"SCN_CN12_9037_CEI062", 13.8, 1,    7917.96,   -0.2,   0.99379, 2,    7917.96, -120.2,   0.99379, 3,    7917.96,  119.8,   0.99379
"SCN_CN12_9073_CEI053", 13.8, 1,    7919.21,   -0.2,   0.99395, 2,     7919.2, -120.2,   0.99395, 3,     7919.2,  119.8,   0.99395
"SCN_CN12_9074_CEI053", 13.8, 1,    7919.82,   -0.2,   0.99402, 2,    7919.81, -120.2,   0.99402, 3,    7919.81,  119.8,   0.99402
"SCN_CN12_9075_CEI053", 13.8, 1,    7920.44,   -0.2,    0.9941, 2,    7920.43, -120.2,    0.9941, 3,    7920.44,  119.8,    0.9941
"SCN_CN12_9076_CEI053", 13.8, 1,    7920.65,   -0.2,   0.99413, 2,    7920.65, -120.2,   0.99413, 3,    7920.65,  119.8,   0.99413
"SCN_CN12_9077_CEI053", 13.8, 1,    7920.88,   -0.2,   0.99416, 2,    7920.88, -120.2,   0.99416, 3,    7920.88,  119.8,   0.99416
"SCN_CN12_9078_CEI053", 13.8, 1,    7921.09,   -0.2,   0.99418, 2,    7921.08, -120.2,   0.99418, 3,    7921.08,  119.8,   0.99418
"SCN_CN12_9078_CEI053_S", 13.8, 1,    7921.09,   -0.2,   0.99418, 2,    7921.08, -120.2,   0.99418, 3,    7921.08,  119.8,   0.99418
"SCN_CN12_9079_CEI053", 13.8, 1,    7921.28,   -0.2,   0.99421, 2,    7921.28, -120.2,   0.99421, 3,    7921.28,  119.8,   0.99421
"SCN_CN12_9080_CEI053", 13.8, 1,     7921.5,   -0.2,   0.99423, 2,    7921.49, -120.2,   0.99423, 3,    7921.49,  119.8,   0.99423
"SCN_CN12_9081_CEI053", 13.8, 1,    7921.67,   -0.2,   0.99426, 2,    7921.67, -120.2,   0.99426, 3,    7921.67,  119.8,   0.99426
"SCN_CN12_9082_CEI053", 13.8, 1,     7921.8,   -0.2,   0.99427, 2,    7921.79, -120.2,   0.99427, 3,    7921.79,  119.8,   0.99427
"SCN_CN12_9083_CEI053", 13.8, 1,    7921.97,   -0.2,   0.99429, 2,    7921.97, -120.2,   0.99429, 3,    7921.97,  119.8,   0.99429
"SCN_CN12_9084_CEI053", 13.8, 1,    7922.04,   -0.2,    0.9943, 2,    7922.03, -120.2,    0.9943, 3,    7922.03,  119.8,    0.9943
"SCN_CN12_9274_CEI053", 13.8, 1,    7922.04,   -0.2,    0.9943, 2,    7922.03, -120.2,    0.9943, 3,    7922.03,  119.8,    0.9943
"SCN_CN12_9340_CEI054", 13.8, 1,    7905.11,   -0.3,   0.99218, 2,     7905.1, -120.3,   0.99218, 3,    7905.11,  119.7,   0.99218
"SCN_CN12_9341_CEI054", 13.8, 1,    7904.46,   -0.3,    0.9921, 2,    7904.46, -120.3,    0.9921, 3,    7904.46,  119.7,    0.9921
"SCN_CN12_CEI_FL_MT_1271", 13.8, 1,    7903.98,   -0.3,   0.99204, 2,    7903.97, -120.3,   0.99203, 3,    7903.97,  119.7,   0.99204
"SCN_CN12_9042_CEI280_ATV", 13.8, 1,    7903.98,   -0.3,   0.99204, 2,    7903.97, -120.3,   0.99203, 3,    7903.97,  119.7,   0.99204
"SCN_CN12_9030_CEI033", 13.8, 1,    7896.67,   -0.3,   0.99112, 2,    7896.66, -120.3,   0.99112, 3,    7896.66,  119.7,   0.99112
"SCN_CN12_9029_CEI033", 13.8, 1,    7897.29,   -0.3,    0.9912, 2,    7897.29, -120.3,    0.9912, 3,    7897.29,  119.7,    0.9912
"SCN_CN12_9028_CEI033", 13.8, 1,    7897.93,   -0.3,   0.99128, 2,    7897.92, -120.3,   0.99128, 3,    7897.92,  119.7,   0.99128
"SCN_CN12_9027_CEI033", 13.8, 1,    7898.56,   -0.3,   0.99136, 2,    7898.55, -120.3,   0.99135, 3,    7898.55,  119.7,   0.99135
"SCN_CN12_9026_CEI033", 13.8, 1,    7899.12,   -0.3,   0.99143, 2,    7899.11, -120.3,   0.99142, 3,    7899.11,  119.7,   0.99142
"SCN_CN12_9025_CEI033", 13.8, 1,    7899.67,   -0.3,   0.99149, 2,    7899.66, -120.3,   0.99149, 3,    7899.66,  119.7,   0.99149
"SCN_CN12_9024_CEI033", 13.8, 1,    7900.23,   -0.3,   0.99157, 2,    7900.22, -120.3,   0.99156, 3,    7900.23,  119.7,   0.99156
"SCN_CN12_9023_CEI033", 13.8, 1,    7900.87,   -0.3,   0.99164, 2,    7900.86, -120.3,   0.99164, 3,    7900.86,  119.7,   0.99164
"SCN_CN12_9022_CEI033", 13.8, 1,    7901.48,   -0.3,   0.99172, 2,    7901.48, -120.3,   0.99172, 3,    7901.48,  119.7,   0.99172
"SCN_CN12_9021_CEI033", 13.8, 1,    7902.11,   -0.3,    0.9918, 2,     7902.1, -120.3,    0.9918, 3,     7902.1,  119.7,    0.9918
"SCN_CN12_9020_CEI033", 13.8, 1,    7902.73,   -0.3,   0.99188, 2,    7902.73, -120.3,   0.99188, 3,    7902.73,  119.7,   0.99188
"SCN_CN12_9019_CEI033", 13.8, 1,    7903.37,   -0.3,   0.99196, 2,    7903.37, -120.3,   0.99196, 3,    7903.37,  119.7,   0.99196
"SCN_CN12_9343_CEI054", 13.8, 1,    7903.98,   -0.3,   0.99204, 2,    7903.97, -120.3,   0.99203, 3,    7903.97,  119.7,   0.99204
"SCN_CN12_9122_CEI091_S", 13.8, 1,    7885.09,   -0.3,   0.98967, 2,    7885.09, -120.3,   0.98966, 3,    7885.09,  119.7,   0.98966
"SCN_CN12_9160_CEI091", 13.8, 1,    7885.13,   -0.3,   0.98967, 2,    7885.12, -120.3,   0.98967, 3,    7885.13,  119.7,   0.98967
"SCN_CN12_9122_CEI091", 13.8, 1,    7885.09,   -0.3,   0.98967, 2,    7885.09, -120.3,   0.98966, 3,    7885.09,  119.7,   0.98966
"SCN_CN12_9086_CEI091", 13.8, 1,    7885.09,   -0.3,   0.98967, 2,    7885.08, -120.3,   0.98966, 3,    7885.09,  119.7,   0.98966
"SCN_CN12_9085_CEI091", 13.8, 1,    7885.09,   -0.3,   0.98966, 2,    7885.08, -120.3,   0.98966, 3,    7885.09,  119.7,   0.98966
"SCN_CN12_9121_CEI091", 13.8, 1,    7885.08,   -0.3,   0.98966, 2,    7885.07, -120.3,   0.98966, 3,    7885.07,  119.7,   0.98966
"SCN_CN12_9120_CEI091", 13.8, 1,    7885.06,   -0.3,   0.98966, 2,    7885.06, -120.3,   0.98966, 3,    7885.06,  119.7,   0.98966
"SCN_CN12_9119_CEI091", 13.8, 1,    7885.04,   -0.3,   0.98966, 2,    7885.04, -120.3,   0.98966, 3,    7885.04,  119.7,   0.98966
"SCN_CN12_9118_CEI091", 13.8, 1,    7885.04,   -0.3,   0.98966, 2,    7885.03, -120.3,   0.98966, 3,    7885.04,  119.7,   0.98966
"SCN_CN12_9114_CEI091", 13.8, 1,       7885,   -0.3,   0.98965, 2,       7885, -120.3,   0.98965, 3,       7885,  119.7,   0.98965
"SCN_CN12_9113_CEI091", 13.8, 1,       7885,   -0.3,   0.98965, 2,    7884.99, -120.3,   0.98965, 3,       7885,  119.7,   0.98965
"SCN_CN12_9112_CEI091", 13.8, 1,    7884.99,   -0.3,   0.98965, 2,    7884.98, -120.3,   0.98965, 3,    7884.99,  119.7,   0.98965
"SCN_CN12_9108_CEI091", 13.8, 1,    7884.97,   -0.3,   0.98965, 2,    7884.97, -120.3,   0.98965, 3,    7884.97,  119.7,   0.98965
"SCN_CN12_9107_CEI091", 13.8, 1,    7884.97,   -0.3,   0.98965, 2,    7884.96, -120.3,   0.98965, 3,    7884.97,  119.7,   0.98965
"SCN_CN12_9103_CEI091", 13.8, 1,    7884.96,   -0.3,   0.98965, 2,    7884.95, -120.3,   0.98965, 3,    7884.96,  119.7,   0.98965
"SCN_CN12_9102_CEI091", 13.8, 1,    7884.94,   -0.3,   0.98965, 2,    7884.93, -120.3,   0.98965, 3,    7884.94,  119.7,   0.98965
"SCN_CN12_9101_CEI091", 13.8, 1,    7884.92,   -0.3,   0.98964, 2,    7884.91, -120.3,   0.98964, 3,    7884.92,  119.7,   0.98964
"SCN_CN12_9096_CEI091", 13.8, 1,     7884.9,   -0.3,   0.98964, 2,    7884.89, -120.3,   0.98964, 3,     7884.9,  119.7,   0.98964
"SCN_CN12_9097_CEI091", 13.8, 1,    7884.88,   -0.3,   0.98964, 2,    7884.88, -120.3,   0.98964, 3,    7884.88,  119.7,   0.98964
"SCN_CN12_9009_CEI091", 13.8, 1,    7884.86,   -0.3,   0.98964, 2,    7884.86, -120.3,   0.98964, 3,    7884.86,  119.7,   0.98964
"SCN_CN12_9006_CEI091", 13.8, 1,    7884.85,   -0.3,   0.98963, 2,    7884.84, -120.3,   0.98963, 3,    7884.84,  119.7,   0.98963
"SCN_CN12_9062_CEI095", 13.8, 1,    7884.83,   -0.3,   0.98963, 2,    7884.83, -120.3,   0.98963, 3,    7884.83,  119.7,   0.98963
"SCN_CN12_9061_CEI095", 13.8, 1,    7884.83,   -0.3,   0.98963, 2,    7884.82, -120.3,   0.98963, 3,    7884.82,  119.7,   0.98963
"SCN_CN12_9060_CEI095", 13.8, 1,    7884.83,   -0.3,   0.98963, 2,    7884.82, -120.3,   0.98963, 3,    7884.82,  119.7,   0.98963
"SCN_CN12_9067_CEI095", 13.8, 1,    7884.82,   -0.3,   0.98963, 2,    7884.81, -120.3,   0.98963, 3,    7884.82,  119.7,   0.98963
"SCN_CN12_9161_CEI091", 13.8, 1,    7885.17,   -0.3,   0.98967, 2,    7885.16, -120.3,   0.98967, 3,    7885.16,  119.7,   0.98967
"SCN_CN12_9165_CEI091", 13.8, 1,     7885.1,   -0.3,   0.98967, 2,     7885.1, -120.3,   0.98967, 3,     7885.1,  119.7,   0.98967
"SCN_CN12_9166_CEI091", 13.8, 1,    7885.05,   -0.3,   0.98966, 2,    7885.04, -120.3,   0.98966, 3,    7885.04,  119.7,   0.98966
"SCN_CN12_9167_CEI091", 13.8, 1,    7884.99,   -0.3,   0.98965, 2,    7884.98, -120.3,   0.98965, 3,    7884.98,  119.7,   0.98965
"SCN_CN12_9168_CEI091", 13.8, 1,    7884.92,   -0.3,   0.98964, 2,    7884.91, -120.3,   0.98964, 3,    7884.91,  119.7,   0.98964
"SCN_CN12_9169_CEI091", 13.8, 1,    7884.87,   -0.3,   0.98964, 2,    7884.86, -120.3,   0.98964, 3,    7884.86,  119.7,   0.98964
"SCN_CN12_9154_CEI091", 13.8, 1,    7884.87,   -0.3,   0.98964, 2,    7884.86, -120.3,   0.98964, 3,    7884.86,  119.7,   0.98964
"SCN_CN12_9153_CEI091", 13.8, 1,    7884.87,   -0.3,   0.98964, 2,    7884.86, -120.3,   0.98964, 3,    7884.86,  119.7,   0.98964
"SCN_CN12_9148_CEI091", 13.8, 1,    7884.87,   -0.3,   0.98964, 2,    7884.86, -120.3,   0.98964, 3,    7884.86,  119.7,   0.98964
"SCN_CN12_9144_CEI091", 13.8, 1,    7884.86,   -0.3,   0.98964, 2,    7884.86, -120.3,   0.98964, 3,    7884.86,  119.7,   0.98964
"SCN_CN12_9171_CEI091", 13.8, 1,     7884.8,   -0.3,   0.98963, 2,     7884.8, -120.3,   0.98963, 3,     7884.8,  119.7,   0.98963
"SCN_CN12_9172_CEI091", 13.8, 1,    7884.73,   -0.3,   0.98962, 2,    7884.73, -120.3,   0.98962, 3,    7884.73,  119.7,   0.98962
"SCN_CN12_9001_CEI092", 13.8, 1,    7884.67,   -0.3,   0.98961, 2,    7884.67, -120.3,   0.98961, 3,    7884.67,  119.7,   0.98961
"SCN_CN12_9003_CEI092", 13.8, 1,    7884.61,   -0.3,   0.98961, 2,    7884.61, -120.3,    0.9896, 3,    7884.61,  119.7,    0.9896
"SCN_CN12_9006_CEI092", 13.8, 1,    7884.55,   -0.3,    0.9896, 2,    7884.54, -120.3,    0.9896, 3,    7884.55,  119.7,    0.9896
"SCN_CN12_9099_CEI092_S", 13.8, 1,     7884.5,   -0.3,   0.98959, 2,     7884.5, -120.3,   0.98959, 3,     7884.5,  119.7,   0.98959
"SCN_CN12_9098_CEI092", 13.8, 1,    7884.48,   -0.3,   0.98959, 2,    7884.48, -120.3,   0.98959, 3,    7884.48,  119.7,   0.98959
"SCN_CN12_9099_CEI092", 13.8, 1,     7884.5,   -0.3,   0.98959, 2,     7884.5, -120.3,   0.98959, 3,     7884.5,  119.7,   0.98959
"SCN_CN12_9097_CEI092", 13.8, 1,    7884.46,   -0.3,   0.98959, 2,    7884.45, -120.3,   0.98958, 3,    7884.45,  119.7,   0.98958
"SCN_CN12_9106_CEI092", 13.8, 1,    7884.46,   -0.3,   0.98959, 2,    7884.45, -120.3,   0.98958, 3,    7884.45,  119.7,   0.98958
"SCN_CN12_9095_CEI092", 13.8, 1,    7884.43,   -0.3,   0.98958, 2,    7884.43, -120.3,   0.98958, 3,    7884.43,  119.7,   0.98958
"SCN_CN12_9008_CEI092_S", 13.8, 1,     7884.4,   -0.3,   0.98958, 2,    7884.39, -120.3,   0.98958, 3,     7884.4,  119.7,   0.98958
"SCN_CN12_9009_CEI092", 13.8, 1,    7884.39,   -0.3,   0.98958, 2,    7884.38, -120.3,   0.98958, 3,    7884.39,  119.7,   0.98958
"SCN_CN12_9010_CEI092", 13.8, 1,    7884.35,   -0.3,   0.98957, 2,    7884.34, -120.3,   0.98957, 3,    7884.34,  119.7,   0.98957
"SCN_CN12_9011_CEI092", 13.8, 1,    7884.29,   -0.3,   0.98956, 2,    7884.28, -120.3,   0.98956, 3,    7884.28,  119.7,   0.98956
"SCN_CN12_9094_CEI092", 13.8, 1,    7884.25,   -0.3,   0.98956, 2,    7884.24, -120.3,   0.98956, 3,    7884.24,  119.7,   0.98956
"SCN_CN12_9087_CEI092", 13.8, 1,    7884.19,   -0.3,   0.98955, 2,    7884.19, -120.3,   0.98955, 3,    7884.19,  119.7,   0.98955
"SCN_CN12_9086_CEI092", 13.8, 1,    7884.15,   -0.3,   0.98955, 2,    7884.15, -120.3,   0.98955, 3,    7884.15,  119.7,   0.98955
"SCN_CN12_9079_CEI092", 13.8, 1,    7884.11,   -0.3,   0.98954, 2,     7884.1, -120.3,   0.98954, 3,     7884.1,  119.7,   0.98954
"SCN_CN12_9080_CEI092", 13.8, 1,     7884.1,   -0.3,   0.98954, 2,    7884.09, -120.3,   0.98954, 3,     7884.1,  119.7,   0.98954
"SCN_CN12_9081_CEI092", 13.8, 1,     7884.1,   -0.3,   0.98954, 2,    7884.09, -120.3,   0.98954, 3,    7884.09,  119.7,   0.98954
"SCN_CN12_9082_CEI092", 13.8, 1,    7884.09,   -0.3,   0.98954, 2,    7884.08, -120.3,   0.98954, 3,    7884.09,  119.7,   0.98954
"SCN_CN12_9002_CEI093", 13.8, 1,    7883.69,   -0.3,   0.98949, 2,    7883.68, -120.3,   0.98949, 3,    7883.69,  119.7,   0.98949
"SCN_CN12_9001_CEI093", 13.8, 1,    7883.69,   -0.3,   0.98949, 2,    7883.68, -120.3,   0.98949, 3,    7883.69,  119.7,   0.98949
"SCN_CN12_9003_CEI093", 13.8, 1,    7883.69,   -0.3,   0.98949, 2,    7883.68, -120.3,   0.98949, 3,    7883.69,  119.7,   0.98949
"SCN_CN12_9004_CEI093", 13.8, 1,    7883.69,   -0.3,   0.98949, 2,    7883.68, -120.3,   0.98949, 3,    7883.69,  119.7,   0.98949
"SCN_CN12_9004_CEI093_S", 13.8, 1,    7883.69,   -0.3,   0.98949, 2,    7883.68, -120.3,   0.98949, 3,    7883.69,  119.7,   0.98949
"SCN_CN12_9005_CEI093", 13.8, 1,    7883.69,   -0.3,   0.98949, 2,    7883.68, -120.3,   0.98949, 3,    7883.69,  119.7,   0.98949
"SCN_CN12_9006_CEI093", 13.8, 1,    7883.69,   -0.3,   0.98949, 2,    7883.69, -120.3,   0.98949, 3,    7883.69,  119.7,   0.98949
"SCN_CN12_9007_CEI093", 13.8, 1,     7883.7,   -0.3,   0.98949, 2,    7883.69, -120.3,   0.98949, 3,    7883.69,  119.7,   0.98949
"SCN_CN12_9008_CEI093", 13.8, 1,     7883.7,   -0.3,   0.98949, 2,    7883.69, -120.3,   0.98949, 3,     7883.7,  119.7,   0.98949
"SCN_CN12_9010_CEI093", 13.8, 1,     7883.7,   -0.3,   0.98949, 2,    7883.69, -120.3,   0.98949, 3,     7883.7,  119.7,   0.98949
"SCN_CN12_9011_CEI093", 13.8, 1,    7883.69,   -0.3,   0.98949, 2,    7883.69, -120.3,   0.98949, 3,    7883.69,  119.7,   0.98949
"SCN_CN12_9021_CEI093", 13.8, 1,    7883.69,   -0.3,   0.98949, 2,    7883.68, -120.3,   0.98949, 3,    7883.68,  119.7,   0.98949
"SCN_CN12_9012_CEI093", 13.8, 1,    7883.69,   -0.3,   0.98949, 2,    7883.69, -120.3,   0.98949, 3,    7883.69,  119.7,   0.98949
"SCN_CN12_9013_CEI093", 13.8, 1,    7883.69,   -0.3,   0.98949, 2,    7883.68, -120.3,   0.98949, 3,    7883.69,  119.7,   0.98949
"SCN_CN12_9014_CEI093", 13.8, 1,    7883.69,   -0.3,   0.98949, 2,    7883.68, -120.3,   0.98949, 3,    7883.68,  119.7,   0.98949
"SCN_CN12_9015_CEI093", 13.8, 1,    7883.69,   -0.3,   0.98949, 2,    7883.68, -120.3,   0.98949, 3,    7883.68,  119.7,   0.98949
"SCN_CN12_9026_CEI092", 13.8, 1,    7883.73,   -0.3,   0.98949, 2,    7883.72, -120.3,   0.98949, 3,    7883.72,  119.7,   0.98949
"SCN_CN12_9027_CEI092", 13.8, 1,    7883.73,   -0.3,   0.98949, 2,    7883.72, -120.3,   0.98949, 3,    7883.72,  119.7,   0.98949
"SCN_CN12_9025_CEI092", 13.8, 1,    7883.73,   -0.3,   0.98949, 2,    7883.73, -120.3,   0.98949, 3,    7883.73,  119.7,   0.98949
"SCN_CN12_9024_CEI092", 13.8, 1,    7883.74,   -0.3,    0.9895, 2,    7883.73, -120.3,   0.98949, 3,    7883.73,  119.7,   0.98949
"SCN_CN12_9022_CEI092", 13.8, 1,    7883.73,   -0.3,   0.98949, 2,    7883.72, -120.3,   0.98949, 3,    7883.72,  119.7,   0.98949
"SCN_CN12_9022_CEI093", 13.8, 1,    7883.67,   -0.3,   0.98949, 2,    7883.67, -120.3,   0.98949, 3,    7883.67,  119.7,   0.98949
"SCN_CN12_9042_CEI093", 13.8, 1,    7883.66,   -0.3,   0.98949, 2,    7883.65, -120.3,   0.98948, 3,    7883.65,  119.7,   0.98948
"SCN_CN12_9041_CEI093", 13.8, 1,    7883.65,   -0.3,   0.98948, 2,    7883.64, -120.3,   0.98948, 3,    7883.64,  119.7,   0.98948
"SCN_CN12_9128_CEI093", 13.8, 1,    7883.65,   -0.3,   0.98948, 2,    7883.64, -120.3,   0.98948, 3,    7883.64,  119.7,   0.98948
"SCN_CN12_9127_CEI093", 13.8, 1,    7883.65,   -0.3,   0.98948, 2,    7883.64, -120.3,   0.98948, 3,    7883.64,  119.7,   0.98948
"SCN_CN12_9129_CEI093", 13.8, 1,    7883.64,   -0.3,   0.98948, 2,    7883.64, -120.3,   0.98948, 3,    7883.64,  119.7,   0.98948
"SCN_CN12_9130_CEI093", 13.8, 1,    7883.64,   -0.3,   0.98948, 2,    7883.63, -120.3,   0.98948, 3,    7883.64,  119.7,   0.98948
"SCN_CN12_9115_CEI093", 13.8, 1,    7883.64,   -0.3,   0.98948, 2,    7883.63, -120.3,   0.98948, 3,    7883.63,  119.7,   0.98948
"SCN_CN12_9114_CEI093", 13.8, 1,    7883.64,   -0.3,   0.98948, 2,    7883.63, -120.3,   0.98948, 3,    7883.63,  119.7,   0.98948
"SCN_CN12_9043_CEI093", 13.8, 1,    7883.64,   -0.3,   0.98948, 2,    7883.63, -120.3,   0.98948, 3,    7883.63,  119.7,   0.98948
"SCN_CN12_9044_CEI093", 13.8, 1,    7883.63,   -0.3,   0.98948, 2,    7883.62, -120.3,   0.98948, 3,    7883.63,  119.7,   0.98948
"SCN_CN12_9066_CEI093", 13.8, 1,    7883.62,   -0.3,   0.98948, 2,    7883.61, -120.3,   0.98948, 3,    7883.62,  119.7,   0.98948
"SCN_CN12_9065_CEI093", 13.8, 1,    7883.62,   -0.3,   0.98948, 2,    7883.61, -120.3,   0.98948, 3,    7883.61,  119.7,   0.98948
"SCN_CN12_9068_CEI093", 13.8, 1,    7883.61,   -0.3,   0.98948, 2,    7883.61, -120.3,   0.98948, 3,    7883.61,  119.7,   0.98948
"SCN_CN12_9069_CEI093", 13.8, 1,    7883.61,   -0.3,   0.98948, 2,     7883.6, -120.3,   0.98948, 3,    7883.61,  119.7,   0.98948
"SCN_CN12_9070_CEI093", 13.8, 1,    7883.61,   -0.3,   0.98948, 2,     7883.6, -120.3,   0.98948, 3,     7883.6,  119.7,   0.98948
"SCN_CN12_9071_CEI093", 13.8, 1,    7883.61,   -0.3,   0.98948, 2,     7883.6, -120.3,   0.98948, 3,     7883.6,  119.7,   0.98948
"SCN_CN12_9091_CEI093", 13.8, 1,    7883.61,   -0.3,   0.98948, 2,    7883.61, -120.3,   0.98948, 3,    7883.61,  119.7,   0.98948
"SCN_CN12_9092_CEI093", 13.8, 1,    7883.61,   -0.3,   0.98948, 2,     7883.6, -120.3,   0.98948, 3,     7883.6,  119.7,   0.98948
"SCN_CN12_9093_CEI093", 13.8, 1,     7883.6,   -0.3,   0.98948, 2,     7883.6, -120.3,   0.98948, 3,     7883.6,  119.7,   0.98948
"SCN_CN12_9094_CEI093", 13.8, 1,     7883.6,   -0.3,   0.98948, 2,    7883.59, -120.3,   0.98948, 3,    7883.59,  119.7,   0.98948
"SCN_CN12_9118_CEI093", 13.8, 1,     7883.6,   -0.3,   0.98948, 2,    7883.59, -120.3,   0.98948, 3,    7883.59,  119.7,   0.98948
"SCN_CN12_9060_CEIRJ008_ATV", 13.8, 1,    7883.74,   -0.3,    0.9895, 2,    7883.73, -120.3,   0.98949, 3,    7883.73,  119.7,   0.98949
"SCN_CN12_9023_CEI092", 13.8, 1,    7883.74,   -0.3,    0.9895, 2,    7883.74, -120.3,   0.98949, 3,    7883.74,  119.7,    0.9895
"SCN_CN12_9032_CEI092", 13.8, 1,    7883.77,   -0.3,    0.9895, 2,    7883.77, -120.3,    0.9895, 3,    7883.77,  119.7,    0.9895
"SCN_CN12_9039_CEI092", 13.8, 1,     7883.8,   -0.3,    0.9895, 2,    7883.79, -120.3,    0.9895, 3,    7883.79,  119.7,    0.9895
"SCN_CN12_9040_CEI092", 13.8, 1,     7883.8,   -0.3,    0.9895, 2,    7883.79, -120.3,    0.9895, 3,    7883.79,  119.7,    0.9895
"SCN_CN12_9041_CEI092", 13.8, 1,    7883.79,   -0.3,    0.9895, 2,    7883.79, -120.3,    0.9895, 3,    7883.79,  119.7,    0.9895
"SCN_CN12_9042_CEI092", 13.8, 1,    7883.79,   -0.3,    0.9895, 2,    7883.78, -120.3,    0.9895, 3,    7883.79,  119.7,    0.9895
"SCN_CN12_9048_CEI092", 13.8, 1,    7883.83,   -0.3,   0.98951, 2,    7883.82, -120.3,   0.98951, 3,    7883.83,  119.7,   0.98951
"SCN_CN12_9039_CEI092_S", 13.8, 1,     7883.8,   -0.3,    0.9895, 2,    7883.79, -120.3,    0.9895, 3,    7883.79,  119.7,    0.9895
"SCN_CN12_9049_CEI092", 13.8, 1,    7883.87,   -0.3,   0.98951, 2,    7883.86, -120.3,   0.98951, 3,    7883.87,  119.7,   0.98951
"SCN_CN12_9050_CEI092", 13.8, 1,    7883.86,   -0.3,   0.98951, 2,    7883.86, -120.3,   0.98951, 3,    7883.86,  119.7,   0.98951
"SCN_CN12_9051_CEI092", 13.8, 1,    7883.86,   -0.3,   0.98951, 2,    7883.85, -120.3,   0.98951, 3,    7883.86,  119.7,   0.98951
"SCN_CN12_9059_CEI092", 13.8, 1,    7883.91,   -0.3,   0.98952, 2,     7883.9, -120.3,   0.98952, 3,     7883.9,  119.7,   0.98952
"SCN_CN12_9049_CEI092_S", 13.8, 1,    7883.87,   -0.3,   0.98951, 2,    7883.86, -120.3,   0.98951, 3,    7883.87,  119.7,   0.98951
"SCN_CN12_9062_CEI092", 13.8, 1,    7883.95,   -0.3,   0.98952, 2,    7883.94, -120.3,   0.98952, 3,    7883.94,  119.7,   0.98952
"SCN_CN12_9063_CEI092", 13.8, 1,    7883.95,   -0.3,   0.98952, 2,    7883.94, -120.3,   0.98952, 3,    7883.94,  119.7,   0.98952
"SCN_CN12_9064_CEI092", 13.8, 1,    7883.94,   -0.3,   0.98952, 2,    7883.94, -120.3,   0.98952, 3,    7883.94,  119.7,   0.98952
"SCN_CN12_9065_CEI092", 13.8, 1,    7883.94,   -0.3,   0.98952, 2,    7883.94, -120.3,   0.98952, 3,    7883.94,  119.7,   0.98952
"SCN_CN12_9070_CEI092", 13.8, 1,    7883.99,   -0.3,   0.98953, 2,    7883.98, -120.3,   0.98953, 3,    7883.98,  119.7,   0.98953
"SCN_CN12_9062_CEI092_S", 13.8, 1,    7883.95,   -0.3,   0.98952, 2,    7883.94, -120.3,   0.98952, 3,    7883.94,  119.7,   0.98952
"SCN_CN12_9071_CEI092", 13.8, 1,    7884.03,   -0.3,   0.98953, 2,    7884.02, -120.3,   0.98953, 3,    7884.02,  119.7,   0.98953
"SCN_CN12_9078_CEI092", 13.8, 1,    7884.06,   -0.3,   0.98954, 2,    7884.06, -120.3,   0.98954, 3,    7884.06,  119.7,   0.98954
"SCN_CN12_9358_CEI068", 13.8, 1,    7938.04,   -0.1,   0.99631, 2,    7938.04, -120.1,   0.99631, 3,    7938.04,  119.9,   0.99631
"SCN_CN12_9359_CEI068", 13.8, 1,    7938.04,   -0.1,   0.99631, 2,    7938.04, -120.1,   0.99631, 3,    7938.04,  119.9,   0.99631
"SCN_CN12_9360_CEI068", 13.8, 1,    7938.04,   -0.1,   0.99631, 2,    7938.04, -120.1,   0.99631, 3,    7938.04,  119.9,   0.99631
"SCN_CN12_9361_CEI068", 13.8, 1,    7938.04,   -0.1,   0.99631, 2,    7938.04, -120.1,   0.99631, 3,    7938.04,  119.9,   0.99631
"SCN_CN12_9362_CEI068", 13.8, 1,    7938.04,   -0.1,   0.99631, 2,    7938.04, -120.1,   0.99631, 3,    7938.04,  119.9,   0.99631
"SCN_CN12_9022_CEI051", 13.8, 1,    7929.95,   -0.2,    0.9953, 2,    7929.95, -120.2,    0.9953, 3,    7929.95,  119.8,    0.9953
"SCN_CN12_9025_CEI051", 13.8, 1,    7930.24,   -0.2,   0.99533, 2,    7930.24, -120.2,   0.99533, 3,    7930.24,  119.8,   0.99533
"SCN_CN12_9020_CEI051", 13.8, 1,    7929.72,   -0.2,   0.99527, 2,    7929.72, -120.2,   0.99527, 3,    7929.72,  119.8,   0.99527
"SCN_CN12_9018_CEI051", 13.8, 1,    7929.48,   -0.2,   0.99524, 2,    7929.48, -120.2,   0.99524, 3,    7929.48,  119.8,   0.99524
"SCN_CN12_9052_CEI083", 13.8, 1,     7885.8,   -0.3,   0.98975, 2,     7885.8, -120.3,   0.98975, 3,     7885.8,  119.7,   0.98975
"SCN_CN12_9053_CEI083", 13.8, 1,    7885.76,   -0.3,   0.98975, 2,    7885.76, -120.3,   0.98975, 3,    7885.76,  119.7,   0.98975
"SCN_CN12_9051_CEI083", 13.8, 1,    7885.89,   -0.3,   0.98977, 2,    7885.88, -120.3,   0.98976, 3,    7885.89,  119.7,   0.98976
"SCN_CN12_9036_CEI083", 13.8, 1,    7885.97,   -0.3,   0.98978, 2,    7885.97, -120.3,   0.98977, 3,    7885.97,  119.7,   0.98978
"SCN_CN12_CEI_FL_MT_1422", 13.8, 1,    7886.06,   -0.3,   0.98979, 2,    7886.05, -120.3,   0.98979, 3,    7886.06,  119.7,   0.98979
"SCN_CN12_9035_CEI083", 13.8, 1,    7886.18,   -0.3,    0.9898, 2,    7886.17, -120.3,    0.9898, 3,    7886.17,  119.7,    0.9898
"SCN_CN12_9038_CEI083", 13.8, 1,    7885.98,   -0.3,   0.98978, 2,    7885.97, -120.3,   0.98978, 3,    7885.97,  119.7,   0.98978
"SCN_CN12_9039_CEI083", 13.8, 1,    7885.88,   -0.3,   0.98976, 2,    7885.87, -120.3,   0.98976, 3,    7885.87,  119.7,   0.98976
"SCN_CN12_9050_CEI280_ATV", 13.8, 1,    7885.81,   -0.3,   0.98975, 2,     7885.8, -120.3,   0.98975, 3,     7885.8,  119.7,   0.98975
"SCN_CN12_9037_CEI083", 13.8, 1,    7886.06,   -0.3,   0.98979, 2,    7886.05, -120.3,   0.98979, 3,    7886.06,  119.7,   0.98979
"SCN_CN12_9021_CEI083", 13.8, 1,       7893,   -0.3,   0.99066, 2,    7892.99, -120.3,   0.99066, 3,       7893,  119.7,   0.99066
"SCN_CN12_9022_CEI083", 13.8, 1,    7892.49,   -0.3,   0.99059, 2,    7892.49, -120.3,   0.99059, 3,    7892.49,  119.7,   0.99059
"SCN_CN12_9023_CEI083", 13.8, 1,    7891.98,   -0.3,   0.99053, 2,    7891.98, -120.3,   0.99053, 3,    7891.98,  119.7,   0.99053
"SCN_CN12_9024_CEI083", 13.8, 1,    7891.48,   -0.3,   0.99047, 2,    7891.48, -120.3,   0.99047, 3,    7891.48,  119.7,   0.99047
"SCN_CN12_9025_CEI083", 13.8, 1,    7890.96,   -0.3,    0.9904, 2,    7890.96, -120.3,    0.9904, 3,    7890.96,  119.7,    0.9904
"SCN_CN12_9026_CEI083_S", 13.8, 1,    7890.46,   -0.3,   0.99034, 2,    7890.45, -120.3,   0.99034, 3,    7890.45,  119.7,   0.99034
"SCN_CN12_9027_CEI083", 13.8, 1,    7890.01,   -0.3,   0.99028, 2,       7890, -120.3,   0.99028, 3,    7890.01,  119.7,   0.99028
"SCN_CN12_9028_CEI083", 13.8, 1,    7889.56,   -0.3,   0.99023, 2,    7889.55, -120.3,   0.99022, 3,    7889.55,  119.7,   0.99023
"SCN_CN12_9029_CEI083", 13.8, 1,    7889.11,   -0.3,   0.99017, 2,     7889.1, -120.3,   0.99017, 3,     7889.1,  119.7,   0.99017
"SCN_CN12_9030_CEI083", 13.8, 1,    7888.59,   -0.3,    0.9901, 2,    7888.58, -120.3,    0.9901, 3,    7888.59,  119.7,    0.9901
"SCN_CN12_9031_CEI083", 13.8, 1,    7888.09,   -0.3,   0.99004, 2,    7888.09, -120.3,   0.99004, 3,    7888.09,  119.7,   0.99004
"SCN_CN12_9032_CEI083", 13.8, 1,    7887.58,   -0.3,   0.98998, 2,    7887.57, -120.3,   0.98998, 3,    7887.57,  119.7,   0.98998
"SCN_CN12_9033_CEI083", 13.8, 1,    7887.07,   -0.3,   0.98991, 2,    7887.06, -120.3,   0.98991, 3,    7887.06,  119.7,   0.98991
"SCN_CN12_9034_CEI083", 13.8, 1,    7886.56,   -0.3,   0.98985, 2,    7886.55, -120.3,   0.98985, 3,    7886.55,  119.7,   0.98985
"SCN_CN12_9053_CEI083_S", 13.8, 1,    7885.76,   -0.3,   0.98975, 2,    7885.76, -120.3,   0.98975, 3,    7885.76,  119.7,   0.98975
"SCN_CN12_9054_CEI083", 13.8, 1,    7885.72,   -0.3,   0.98974, 2,    7885.71, -120.3,   0.98974, 3,    7885.72,  119.7,   0.98974
"SCN_CN12_9074_CEI083", 13.8, 1,    7885.72,   -0.3,   0.98974, 2,    7885.71, -120.3,   0.98974, 3,    7885.72,  119.7,   0.98974
"SCN_CN12_9058_CEI083", 13.8, 1,    7885.34,   -0.3,    0.9897, 2,    7885.33, -120.3,    0.9897, 3,    7885.33,  119.7,    0.9897
"SCN_CN12_9059_CEI083", 13.8, 1,    7885.25,   -0.3,   0.98969, 2,    7885.25, -120.3,   0.98968, 3,    7885.25,  119.7,   0.98968
"SCN_CN12_9057_CEI083", 13.8, 1,    7885.42,   -0.3,   0.98971, 2,    7885.41, -120.3,   0.98971, 3,    7885.42,  119.7,   0.98971
"SCN_CN12_9056_CEI083", 13.8, 1,     7885.5,   -0.3,   0.98972, 2,     7885.5, -120.3,   0.98972, 3,     7885.5,  119.7,   0.98972
"SCN_CN12_9055_CEI083", 13.8, 1,    7885.61,   -0.3,   0.98973, 2,    7885.61, -120.3,   0.98973, 3,    7885.61,  119.7,   0.98973
"SCN_CN12_9060_CEI083", 13.8, 1,    7885.16,   -0.3,   0.98967, 2,    7885.16, -120.3,   0.98967, 3,    7885.16,  119.7,   0.98967
"SCN_CN12_9061_CEI083", 13.8, 1,    7885.07,   -0.3,   0.98966, 2,    7885.06, -120.3,   0.98966, 3,    7885.07,  119.7,   0.98966
"SCN_CN12_9062_CEI083", 13.8, 1,    7884.96,   -0.3,   0.98965, 2,    7884.95, -120.3,   0.98965, 3,    7884.95,  119.7,   0.98965
"SCN_CN12_9065_CEI083", 13.8, 1,    7884.95,   -0.3,   0.98965, 2,    7884.95, -120.3,   0.98965, 3,    7884.95,  119.7,   0.98965
"SCN_CN12_9066_CEI083", 13.8, 1,    7884.95,   -0.3,   0.98965, 2,    7884.94, -120.3,   0.98965, 3,    7884.94,  119.7,   0.98965
...